 *******************************************************************************

         NASA-GLENN CHEMICAL EQUILIBRIUM PROGRAM CEA2, FEBRUARY 5, 2004
                   BY  BONNIE MCBRIDE AND SANFORD GORDON
      REFS: NASA RP-1311, PART I, 1994 AND NASA RP-1311, PART II, 1996

 *******************************************************************************



  
 ### CEA analysis performed on Sun 01-Dec-2019 14:54:52
  
 # Problem Type: "Rocket" (Infinite Area Combustor)
  
 prob case=RAVEN_2________8823 ro equilibrium
  
 # Pressure (10 values):
 p,mpa= 0.5, 1, 1.5, 2, 2.5, 3, 3.5, 4, 4.5, 5
 # Supersonic Area Ratio (1 value):
 supar= 4.67
  
 # Oxidizer/Fuel Wt. ratio (1 value):
 o/f= 4.5
  
 # You selected the following fuels and oxidizers:
 reac
 fuel C2H5OH(L)         wt%=100.0000
 oxid N2O               wt%=100.0000
  
 # You selected these options for output:
 # short version of output
 output short
 # Proportions of any products will be expressed as Mass Fractions.
 output massf
 # Heat will be expressed as siunits
 output siunits
  
 # Input prepared by this script:prepareInputFile.cgi
  
 ### IMPORTANT:  The following line is the end of your CEA input file!
 end





              THEORETICAL ROCKET PERFORMANCE ASSUMING EQUILIBRIUM

           COMPOSITION DURING EXPANSION FROM INFINITE AREA COMBUSTOR

 Pin =     7.3 PSIA
 CASE = RAVEN_2________

             REACTANT                    WT FRACTION      ENERGY      TEMP
                                          (SEE NOTE)     KJ/KG-MOL      K  
 FUEL        C2H5OH(L)                    1.0000000         0.000      0.000
 OXIDANT     N2O                          1.0000000         0.000      0.000

 O/F=    4.50000  %FUEL= 18.181818  R,EQ.RATIO= 1.225882  PHI,EQ.RATIO= 1.273838

                 CHAMBER   THROAT     EXIT
 Pinf/P            1.0000   1.7268   27.127
 P, BAR           0.50000  0.28956  0.01843
 T, K             2718.54  2588.84  1794.69
 RHO, KG/CU M    5.5307-2 3.4038-2 3.2219-3
 H, KJ/KG         0.00000  -479.15 -2452.06
 U, KJ/KG         -904.05 -1329.85 -3024.15
 G, KJ/KG        -31200.8 -30191.4 -23049.8
 S, KJ/(KG)(K)    11.4770  11.4770  11.4770

 M, (1/n)          25.002   25.303   26.083
 (dLV/dLP)t      -1.02183 -1.01675 -1.00020
 (dLV/dLT)p        1.5073   1.4107   1.0067
 Cp, KJ/(KG)(K)    5.6964   5.0677   1.7146
 GAMMAs            1.1246   1.1265   1.2318
 SON VEL,M/SEC     1008.3    978.9    839.5
 MACH NUMBER        0.000    1.000    2.638

 PERFORMANCE PARAMETERS

 Ae/At                      1.0000   4.6700
 CSTAR, M/SEC               1500.6   1500.6
 CF                         0.6524   1.4758
 Ivac, M/SEC                1847.9   2472.9
 Isp, M/SEC                  978.9   2214.5


 MASS FRACTIONS

 *CO              0.13024  0.12130  0.09095
 *CO2             0.14275  0.15679  0.20448
 *H               0.00076  0.00058  0.00002
 *H2              0.00386  0.00358  0.00371
 H2O              0.16286  0.16933  0.17992
 *NO              0.00689  0.00472  0.00002
 *N2              0.51754  0.51855  0.52075
 *O               0.00371  0.00230  0.00000
 *OH              0.01727  0.01292  0.00015
 *O2              0.01411  0.00992  0.00001

  * THERMODYNAMIC PROPERTIES FITTED TO 20000.K

 NOTE. WEIGHT FRACTION OF FUEL IN TOTAL FUELS AND OF OXIDANT IN TOTAL OXIDANTS










              THEORETICAL ROCKET PERFORMANCE ASSUMING EQUILIBRIUM

           COMPOSITION DURING EXPANSION FROM INFINITE AREA COMBUSTOR

 Pin =    14.5 PSIA
 CASE = RAVEN_2________

             REACTANT                    WT FRACTION      ENERGY      TEMP
                                          (SEE NOTE)     KJ/KG-MOL      K  
 FUEL        C2H5OH(L)                    1.0000000         0.000      0.000
 OXIDANT     N2O                          1.0000000         0.000      0.000

 O/F=    4.50000  %FUEL= 18.181818  R,EQ.RATIO= 1.225882  PHI,EQ.RATIO= 1.273838

                 CHAMBER   THROAT     EXIT
 Pinf/P            1.0000   1.7304   27.683
 P, BAR            1.0000  0.57791  0.03612
 T, K             2774.07  2633.98  1779.58
 RHO, KG/CU M    1.0891-1 6.7052-2 6.3688-3
 H, KJ/KG         0.00000  -487.92 -2479.77
 U, KJ/KG         -918.20 -1349.81 -3046.95
 G, KJ/KG        -31200.1 -30112.4 -22494.8
 S, KJ/(KG)(K)    11.2471  11.2471  11.2471

 M, (1/n)          25.120   25.410   26.087
 (dLV/dLP)t      -1.01958 -1.01459 -1.00013
 (dLV/dLT)p        1.4490   1.3539   1.0041
 Cp, KJ/(KG)(K)    5.1806   4.5655   1.6859
 GAMMAs            1.1294   1.1322   1.2353
 SON VEL,M/SEC     1018.3    987.9    837.0
 MACH NUMBER        0.000    1.000    2.661

 PERFORMANCE PARAMETERS

 Ae/At                      1.0000   4.6700
 CSTAR, M/SEC               1509.7   1509.7
 CF                         0.6543   1.4751
 Ivac, M/SEC                1860.3   2481.7
 Isp, M/SEC                  987.9   2227.0


 MASS FRACTIONS

 *CO              0.12845  0.11951  0.09058
 *CO2             0.14557  0.15961  0.20506
 *H               0.00065  0.00048  0.00001
 HO2              0.00001  0.00000  0.00000
 *H2              0.00372  0.00345  0.00374
 H2O              0.16565  0.17189  0.17975
 *NO              0.00694  0.00461  0.00001
 *N2              0.51752  0.51860  0.52075
 *O               0.00305  0.00181  0.00000
 *OH              0.01625  0.01184  0.00009
 *O2              0.01220  0.00818  0.00000

  * THERMODYNAMIC PROPERTIES FITTED TO 20000.K

 NOTE. WEIGHT FRACTION OF FUEL IN TOTAL FUELS AND OF OXIDANT IN TOTAL OXIDANTS










              THEORETICAL ROCKET PERFORMANCE ASSUMING EQUILIBRIUM

           COMPOSITION DURING EXPANSION FROM INFINITE AREA COMBUSTOR

 Pin =    21.8 PSIA
 CASE = RAVEN_2________

             REACTANT                    WT FRACTION      ENERGY      TEMP
                                          (SEE NOTE)     KJ/KG-MOL      K  
 FUEL        C2H5OH(L)                    1.0000000         0.000      0.000
 OXIDANT     N2O                          1.0000000         0.000      0.000

 O/F=    4.50000  %FUEL= 18.181818  R,EQ.RATIO= 1.225882  PHI,EQ.RATIO= 1.273838

                 CHAMBER   THROAT     EXIT
 Pinf/P            1.0000   1.7326   27.992
 P, BAR            1.5000  0.86573  0.05359
 T, K             2806.16  2659.49  1771.25
 RHO, KG/CU M    1.6193-1 9.9720-2 9.4930-3
 H, KJ/KG         0.00000  -493.05 -2494.56
 U, KJ/KG         -926.31 -1361.22 -3059.06
 G, KJ/KG        -31185.0 -30048.1 -22178.6
 S, KJ/(KG)(K)    11.1130  11.1130  11.1130

 M, (1/n)          25.188   25.470   26.089
 (dLV/dLP)t      -1.01828 -1.01334 -1.00009
 (dLV/dLT)p        1.4161   1.3220   1.0031
 Cp, KJ/(KG)(K)    4.8981   4.2909   1.6745
 GAMMAs            1.1323   1.1359   1.2367
 SON VEL,M/SEC     1024.2    993.0    835.5
 MACH NUMBER        0.000    1.000    2.673

 PERFORMANCE PARAMETERS

 Ae/At                      1.0000   4.6700
 CSTAR, M/SEC               1514.8   1514.8
 CF                         0.6556   1.4746
 Ivac, M/SEC                1867.3   2486.4
 Isp, M/SEC                  993.0   2233.6


 MASS FRACTIONS

 *CO              0.12732  0.11842  0.09037
 *CO2             0.14734  0.16132  0.20539
 *H               0.00058  0.00043  0.00001
 HO2              0.00001  0.00000  0.00000
 *H2              0.00364  0.00338  0.00375
 H2O              0.16728  0.17336  0.17965
 *NO              0.00693  0.00451  0.00001
 *N2              0.51752  0.51865  0.52076
 *O               0.00269  0.00155  0.00000
 *OH              0.01559  0.01117  0.00007
 *O2              0.01109  0.00721  0.00000

  * THERMODYNAMIC PROPERTIES FITTED TO 20000.K

 NOTE. WEIGHT FRACTION OF FUEL IN TOTAL FUELS AND OF OXIDANT IN TOTAL OXIDANTS










              THEORETICAL ROCKET PERFORMANCE ASSUMING EQUILIBRIUM

           COMPOSITION DURING EXPANSION FROM INFINITE AREA COMBUSTOR

 Pin =    29.0 PSIA
 CASE = RAVEN_2________

             REACTANT                    WT FRACTION      ENERGY      TEMP
                                          (SEE NOTE)     KJ/KG-MOL      K  
 FUEL        C2H5OH(L)                    1.0000000         0.000      0.000
 OXIDANT     N2O                          1.0000000         0.000      0.000

 O/F=    4.50000  %FUEL= 18.181818  R,EQ.RATIO= 1.225882  PHI,EQ.RATIO= 1.273838

                 CHAMBER   THROAT     EXIT
 Pinf/P            1.0000   1.7344   28.201
 P, BAR            2.0000   1.1532  0.07092
 T, K             2828.69  2677.12  1765.63
 RHO, KG/CU M    2.1460-1 1.3217-1 1.2604-2
 H, KJ/KG         0.00000  -496.69 -2504.41
 U, KJ/KG         -931.99 -1369.16 -3067.09
 G, KJ/KG        -31167.0 -29993.6 -21958.4
 S, KJ/(KG)(K)    11.0182  11.0182  11.0182

 M, (1/n)          25.236   25.512   26.090
 (dLV/dLP)t      -1.01737 -1.01248 -1.00008
 (dLV/dLT)p        1.3933   1.3001   1.0026
 Cp, KJ/(KG)(K)    4.7059   4.1044   1.6681
 GAMMAs            1.1345   1.1386   1.2376
 SON VEL,M/SEC     1028.3    996.7    834.5
 MACH NUMBER        0.000    1.000    2.682

 PERFORMANCE PARAMETERS

 Ae/At                      1.0000   4.6700
 CSTAR, M/SEC               1518.2   1518.2
 CF                         0.6565   1.4741
 Ivac, M/SEC                1872.1   2489.5
 Isp, M/SEC                  996.7   2238.0


 MASS FRACTIONS

 *CO              0.12649  0.11764  0.09023
 *CO2             0.14864  0.16254  0.20561
 *H               0.00054  0.00039  0.00001
 HO2              0.00001  0.00000  0.00000
 *H2              0.00358  0.00333  0.00376
 H2O              0.16843  0.17438  0.17957
 *NO              0.00689  0.00441  0.00001
 *N2              0.51754  0.51870  0.52076
 *O               0.00245  0.00138  0.00000
 *OH              0.01509  0.01067  0.00005
 *O2              0.01032  0.00655  0.00000

  * THERMODYNAMIC PROPERTIES FITTED TO 20000.K

 NOTE. WEIGHT FRACTION OF FUEL IN TOTAL FUELS AND OF OXIDANT IN TOTAL OXIDANTS










              THEORETICAL ROCKET PERFORMANCE ASSUMING EQUILIBRIUM

           COMPOSITION DURING EXPANSION FROM INFINITE AREA COMBUSTOR

 Pin =    36.3 PSIA
 CASE = RAVEN_2________

             REACTANT                    WT FRACTION      ENERGY      TEMP
                                          (SEE NOTE)     KJ/KG-MOL      K  
 FUEL        C2H5OH(L)                    1.0000000         0.000      0.000
 OXIDANT     N2O                          1.0000000         0.000      0.000

 O/F=    4.50000  %FUEL= 18.181818  R,EQ.RATIO= 1.225882  PHI,EQ.RATIO= 1.273838

                 CHAMBER   THROAT     EXIT
 Pinf/P            1.0000   1.7357   28.357
 P, BAR            2.5000   1.4403  0.08816
 T, K             2845.99  2690.47  1761.46
 RHO, KG/CU M    2.6700-1 1.6447-1 1.5706-2
 H, KJ/KG         0.00000  -499.50 -2511.65
 U, KJ/KG         -936.33 -1375.24 -3072.99
 G, KJ/KG        -31148.6 -29945.9 -21790.3
 S, KJ/(KG)(K)    10.9447  10.9447  10.9447

 M, (1/n)          25.272   25.544   26.090
 (dLV/dLP)t      -1.01667 -1.01182 -1.00007
 (dLV/dLT)p        1.3760   1.2834   1.0022
 Cp, KJ/(KG)(K)    4.5615   3.9647   1.6638
 GAMMAs            1.1362   1.1408   1.2381
 SON VEL,M/SEC     1031.4    999.5    833.7
 MACH NUMBER        0.000    1.000    2.688

 PERFORMANCE PARAMETERS

 Ae/At                     1.00000   4.6700
 CSTAR, M/SEC               1520.8   1520.8
 CF                         0.6572   1.4738
 Ivac, M/SEC                1875.7   2491.7
 Isp, M/SEC                  999.5   2241.3


 MASS FRACTIONS

 *CO              0.12583  0.11703  0.09012
 *CO2             0.14968  0.16350  0.20578
 *H               0.00051  0.00037  0.00001
 HO2              0.00001  0.00000  0.00000
 *H2              0.00354  0.00329  0.00377
 H2O              0.16932  0.17516  0.17951
 *NO              0.00685  0.00433  0.00000
 *N2              0.51756  0.51874  0.52076
 *O               0.00228  0.00126  0.00000
 *OH              0.01469  0.01027  0.00005
 *O2              0.00973  0.00605  0.00000

  * THERMODYNAMIC PROPERTIES FITTED TO 20000.K

 NOTE. WEIGHT FRACTION OF FUEL IN TOTAL FUELS AND OF OXIDANT IN TOTAL OXIDANTS










              THEORETICAL ROCKET PERFORMANCE ASSUMING EQUILIBRIUM

           COMPOSITION DURING EXPANSION FROM INFINITE AREA COMBUSTOR

 Pin =    43.5 PSIA
 CASE = RAVEN_2________

             REACTANT                    WT FRACTION      ENERGY      TEMP
                                          (SEE NOTE)     KJ/KG-MOL      K  
 FUEL        C2H5OH(L)                    1.0000000         0.000      0.000
 OXIDANT     N2O                          1.0000000         0.000      0.000

 O/F=    4.50000  %FUEL= 18.181818  R,EQ.RATIO= 1.225882  PHI,EQ.RATIO= 1.273838

                 CHAMBER   THROAT     EXIT
 Pinf/P            1.0000   1.7369   28.481
 P, BAR            3.0000   1.7272  0.10533
 T, K             2860.01  2701.16  1758.15
 RHO, KG/CU M    3.1921-1 1.9665-1 1.8800-2
 H, KJ/KG         0.00000  -501.80 -2517.35
 U, KJ/KG         -939.83 -1380.13 -3077.63
 G, KJ/KG        -31130.5 -29903.3 -21654.4
 S, KJ/(KG)(K)    10.8848  10.8848  10.8848

 M, (1/n)          25.302   25.570   26.091
 (dLV/dLP)t      -1.01610 -1.01128 -1.00006
 (dLV/dLT)p        1.3621   1.2701   1.0020
 Cp, KJ/(KG)(K)    4.4465   3.8537   1.6608
 GAMMAs            1.1377   1.1426   1.2385
 SON VEL,M/SEC     1034.0   1001.8    833.0
 MACH NUMBER        0.000    1.000    2.694

 PERFORMANCE PARAMETERS

 Ae/At                      1.0000   4.6700
 CSTAR, M/SEC               1522.8   1522.8
 CF                         0.6578   1.4734
 Ivac, M/SEC                1878.6   2493.5
 Isp, M/SEC                 1001.8   2243.8


 MASS FRACTIONS

 *CO              0.12528  0.11654  0.09004
 *CO2             0.15054  0.16428  0.20591
 *H               0.00049  0.00035  0.00001
 HO2              0.00001  0.00000  0.00000
 *H2              0.00350  0.00326  0.00378
 H2O              0.17004  0.17578  0.17946
 *NO              0.00681  0.00425  0.00000
 *N2              0.51758  0.51877  0.52076
 *O               0.00214  0.00116  0.00000
 *OH              0.01435  0.00995  0.00004
 *O2              0.00926  0.00565  0.00000

  * THERMODYNAMIC PROPERTIES FITTED TO 20000.K

 NOTE. WEIGHT FRACTION OF FUEL IN TOTAL FUELS AND OF OXIDANT IN TOTAL OXIDANTS










              THEORETICAL ROCKET PERFORMANCE ASSUMING EQUILIBRIUM

           COMPOSITION DURING EXPANSION FROM INFINITE AREA COMBUSTOR

 Pin =    50.8 PSIA
 CASE = RAVEN_2________

             REACTANT                    WT FRACTION      ENERGY      TEMP
                                          (SEE NOTE)     KJ/KG-MOL      K  
 FUEL        C2H5OH(L)                    1.0000000         0.000      0.000
 OXIDANT     N2O                          1.0000000         0.000      0.000

 O/F=    4.50000  %FUEL= 18.181818  R,EQ.RATIO= 1.225882  PHI,EQ.RATIO= 1.273838

                 CHAMBER   THROAT     EXIT
 Pinf/P            1.0000   1.7379   28.583
 P, BAR            3.5000   2.0139  0.12245
 T, K             2871.76  2710.04  1755.45
 RHO, KG/CU M    3.7125-1 2.2873-1 2.1889-2
 H, KJ/KG         0.00000  -503.73 -2522.00
 U, KJ/KG         -942.77 -1384.22 -3081.41
 G, KJ/KG        -31113.0 -29864.6 -21540.7
 S, KJ/(KG)(K)    10.8341  10.8341  10.8341

 M, (1/n)          25.327   25.591   26.091
 (dLV/dLP)t      -1.01562 -1.01084 -1.00005
 (dLV/dLT)p        1.3504   1.2590   1.0018
 Cp, KJ/(KG)(K)    4.3512   3.7621   1.6585
 GAMMAs            1.1389   1.1442   1.2388
 SON VEL,M/SEC     1036.2   1003.7    832.5
 MACH NUMBER        0.000    1.000    2.698

 PERFORMANCE PARAMETERS

 Ae/At                      1.0000   4.6700
 CSTAR, M/SEC               1524.5   1524.5
 CF                         0.6584   1.4732
 Ivac, M/SEC                1880.9   2495.0
 Isp, M/SEC                 1003.7   2245.9


 MASS FRACTIONS

 *CO              0.12482  0.11612  0.08997
 *CO2             0.15127  0.16494  0.20603
 *H               0.00047  0.00033  0.00001
 HO2              0.00001  0.00000  0.00000
 *H2              0.00347  0.00323  0.00378
 H2O              0.17065  0.17631  0.17942
 *NO              0.00677  0.00419  0.00000
 *N2              0.51760  0.51880  0.52076
 *O               0.00202  0.00108  0.00000
 *OH              0.01406  0.00967  0.00004
 *O2              0.00886  0.00533  0.00000

  * THERMODYNAMIC PROPERTIES FITTED TO 20000.K

 NOTE. WEIGHT FRACTION OF FUEL IN TOTAL FUELS AND OF OXIDANT IN TOTAL OXIDANTS










              THEORETICAL ROCKET PERFORMANCE ASSUMING EQUILIBRIUM

           COMPOSITION DURING EXPANSION FROM INFINITE AREA COMBUSTOR

 Pin =    58.0 PSIA
 CASE = RAVEN_2________

             REACTANT                    WT FRACTION      ENERGY      TEMP
                                          (SEE NOTE)     KJ/KG-MOL      K  
 FUEL        C2H5OH(L)                    1.0000000         0.000      0.000
 OXIDANT     N2O                          1.0000000         0.000      0.000

 O/F=    4.50000  %FUEL= 18.181818  R,EQ.RATIO= 1.225882  PHI,EQ.RATIO= 1.273838

                 CHAMBER   THROAT     EXIT
 Pinf/P            1.0000   1.7388   28.669
 P, BAR            4.0000   2.3005  0.13952
 T, K             2881.86  2717.60  1753.16
 RHO, KG/CU M    4.2315-1 2.6073-1 2.4974-2
 H, KJ/KG         0.00000  -505.40 -2525.91
 U, KJ/KG         -945.29 -1387.72 -3084.59
 G, KJ/KG        -31096.2 -29829.1 -21443.1
 S, KJ/(KG)(K)    10.7903  10.7903  10.7903

 M, (1/n)          25.348   25.609   26.091
 (dLV/dLP)t      -1.01520 -1.01046 -1.00005
 (dLV/dLT)p        1.3405   1.2496   1.0016
 Cp, KJ/(KG)(K)    4.2703   3.6845   1.6567
 GAMMAs            1.1400   1.1457   1.2391
 SON VEL,M/SEC     1038.1   1005.4    832.0
 MACH NUMBER        0.000    1.000    2.701

 PERFORMANCE PARAMETERS

 Ae/At                      1.0000   4.6700
 CSTAR, M/SEC               1525.9   1525.9
 CF                         0.6589   1.4729
 Ivac, M/SEC                1883.0   2496.2
 Isp, M/SEC                 1005.4   2247.6


 MASS FRACTIONS

 *CO              0.12441  0.11576  0.08991
 *CO2             0.15192  0.16550  0.20612
 *H               0.00045  0.00032  0.00001
 HO2              0.00001  0.00000  0.00000
 *H2              0.00345  0.00321  0.00379
 H2O              0.17117  0.17675  0.17938
 *NO              0.00673  0.00412  0.00000
 *N2              0.51761  0.51883  0.52076
 *O               0.00192  0.00102  0.00000
 *OH              0.01381  0.00942  0.00003
 *O2              0.00852  0.00505  0.00000

  * THERMODYNAMIC PROPERTIES FITTED TO 20000.K

 NOTE. WEIGHT FRACTION OF FUEL IN TOTAL FUELS AND OF OXIDANT IN TOTAL OXIDANTS










              THEORETICAL ROCKET PERFORMANCE ASSUMING EQUILIBRIUM

           COMPOSITION DURING EXPANSION FROM INFINITE AREA COMBUSTOR

 Pin =    65.3 PSIA
 CASE = RAVEN_2________

             REACTANT                    WT FRACTION      ENERGY      TEMP
                                          (SEE NOTE)     KJ/KG-MOL      K  
 FUEL        C2H5OH(L)                    1.0000000         0.000      0.000
 OXIDANT     N2O                          1.0000000         0.000      0.000

 O/F=    4.50000  %FUEL= 18.181818  R,EQ.RATIO= 1.225882  PHI,EQ.RATIO= 1.273838

                 CHAMBER   THROAT     EXIT
 Pinf/P            1.0000   1.7396   28.744
 P, BAR            4.5000   2.5868  0.15656
 T, K             2890.71  2724.16  1751.20
 RHO, KG/CU M    4.7494-1 2.9266-1 2.8054-2
 H, KJ/KG         0.00001  -506.88 -2529.26
 U, KJ/KG         -947.49 -1390.78 -3087.31
 G, KJ/KG        -31080.0 -29796.2 -21357.6
 S, KJ/(KG)(K)    10.7517  10.7517  10.7517

 M, (1/n)          25.367   25.625   26.092
 (dLV/dLP)t      -1.01484 -1.01012 -1.00005
 (dLV/dLT)p        1.3318   1.2414   1.0015
 Cp, KJ/(KG)(K)    4.2000   3.6172   1.6552
 GAMMAs            1.1410   1.1469   1.2393
 SON VEL,M/SEC     1039.8   1006.9    831.6
 MACH NUMBER        0.000    1.000    2.705

 PERFORMANCE PARAMETERS

 Ae/At                      1.0000   4.6700
 CSTAR, M/SEC               1527.2   1527.2
 CF                         0.6593   1.4727
 Ivac, M/SEC                1884.7   2497.2
 Isp, M/SEC                 1006.9   2249.1


 MASS FRACTIONS

 *CO              0.12404  0.11544  0.08986
 *CO2             0.15249  0.16600  0.20620
 *H               0.00043  0.00031  0.00001
 HO2              0.00001  0.00000  0.00000
 *H2              0.00342  0.00319  0.00379
 H2O              0.17163  0.17714  0.17935
 *NO              0.00669  0.00406  0.00000
 *N2              0.51763  0.51886  0.52076
 *O               0.00184  0.00096  0.00000
 *OH              0.01358  0.00920  0.00003
 *O2              0.00823  0.00482  0.00000

  * THERMODYNAMIC PROPERTIES FITTED TO 20000.K

 NOTE. WEIGHT FRACTION OF FUEL IN TOTAL FUELS AND OF OXIDANT IN TOTAL OXIDANTS










              THEORETICAL ROCKET PERFORMANCE ASSUMING EQUILIBRIUM

           COMPOSITION DURING EXPANSION FROM INFINITE AREA COMBUSTOR

 Pin =    72.5 PSIA
 CASE = RAVEN_2________

             REACTANT                    WT FRACTION      ENERGY      TEMP
                                          (SEE NOTE)     KJ/KG-MOL      K  
 FUEL        C2H5OH(L)                    1.0000000         0.000      0.000
 OXIDANT     N2O                          1.0000000         0.000      0.000

 O/F=    4.50000  %FUEL= 18.181818  R,EQ.RATIO= 1.225882  PHI,EQ.RATIO= 1.273838

                 CHAMBER   THROAT     EXIT
 Pinf/P            1.0000   1.7403   28.809
 P, BAR            5.0000   2.8730  0.17356
 T, K             2898.57  2729.95  1749.48
 RHO, KG/CU M    5.2663-1 3.2453-1 3.1131-2
 H, KJ/KG         0.00001  -508.19 -2532.18
 U, KJ/KG         -949.44 -1393.49 -3089.68
 G, KJ/KG        -31064.4 -29765.5 -21281.7
 S, KJ/(KG)(K)    10.7172  10.7172  10.7172

 M, (1/n)          25.384   25.639   26.092
 (dLV/dLP)t      -1.01452 -1.00983 -1.00004
 (dLV/dLT)p        1.3241   1.2342   1.0014
 Cp, KJ/(KG)(K)    4.1380   3.5582   1.6540
 GAMMAs            1.1419   1.1481   1.2394
 SON VEL,M/SEC     1041.2   1008.2    831.3
 MACH NUMBER        0.000    1.000    2.707

 PERFORMANCE PARAMETERS

 Ae/At                      1.0000   4.6700
 CSTAR, M/SEC               1528.2   1528.2
 CF                         0.6597   1.4725
 Ivac, M/SEC                1886.3   2498.1
 Isp, M/SEC                 1008.2   2250.4


 MASS FRACTIONS

 *CO              0.12371  0.11516  0.08981
 *CO2             0.15300  0.16645  0.20627
 *H               0.00042  0.00030  0.00000
 HO2              0.00001  0.00000  0.00000
 *H2              0.00340  0.00318  0.00380
 H2O              0.17204  0.17749  0.17933
 *NO              0.00665  0.00401  0.00000
 *N2              0.51765  0.51889  0.52076
 *O               0.00177  0.00092  0.00000
 *OH              0.01337  0.00901  0.00003
 *O2              0.00796  0.00461  0.00000

  * THERMODYNAMIC PROPERTIES FITTED TO 20000.K

 NOTE. WEIGHT FRACTION OF FUEL IN TOTAL FUELS AND OF OXIDANT IN TOTAL OXIDANTS
